alpha-thujone
     RDKit          3D

 27 28  0  0  0  0  0  0  0  0999 V2000
   -2.3553    1.6670    0.0002 O   0  0  0  0  0  0  0  0  0  0  0  0
    0.7069   -0.1094   -0.4295 C   0  0  1  0  0  0  0  0  0  0  0  0
   -0.2860   -1.2269   -0.3532 C   0  0  2  0  0  0  0  0  0  0  0  0
    0.4691   -0.9801   -1.6327 C   0  0  0  0  0  0  0  0  0  0  0  0
   -1.6732   -0.6682   -0.1570 C   0  0  2  0  0  0  0  0  0  0  0  0
    0.0073    1.2075   -0.2786 C   0  0  0  0  0  0  0  0  0  0  0  0
    2.0094   -0.2538    0.2768 C   0  0  0  0  0  0  0  0  0  0  0  0
   -1.4592    0.8434   -0.1314 C   0  0  0  0  0  0  0  0  0  0  0  0
   -2.3022   -1.1336    1.1448 C   0  0  0  0  0  0  0  0  0  0  0  0
    3.0398    0.7611   -0.2344 C   0  0  0  0  0  0  0  0  0  0  0  0
    1.8435   -0.1070    1.7949 C   0  0  0  0  0  0  0  0  0  0  0  0
   -0.0665   -2.1310    0.1960 H   0  0  0  0  0  0  0  0  0  0  0  0
   -0.0664   -0.5609   -2.4765 H   0  0  0  0  0  0  0  0  0  0  0  0
    1.2244   -1.7041   -1.9156 H   0  0  0  0  0  0  0  0  0  0  0  0
   -2.3055   -0.9232   -1.0138 H   0  0  0  0  0  0  0  0  0  0  0  0
    0.1366    1.8200   -1.1760 H   0  0  0  0  0  0  0  0  0  0  0  0
    0.3037    1.7783    0.6033 H   0  0  0  0  0  0  0  0  0  0  0  0
    2.4205   -1.2561    0.0946 H   0  0  0  0  0  0  0  0  0  0  0  0
   -1.6911   -0.8481    2.0087 H   0  0  0  0  0  0  0  0  0  0  0  0
   -3.2941   -0.6898    1.2804 H   0  0  0  0  0  0  0  0  0  0  0  0
   -2.4101   -2.2232    1.1577 H   0  0  0  0  0  0  0  0  0  0  0  0
    2.7357    1.7925   -0.0269 H   0  0  0  0  0  0  0  0  0  0  0  0
    4.0126    0.5962    0.2409 H   0  0  0  0  0  0  0  0  0  0  0  0
    3.1726    0.6652   -1.3175 H   0  0  0  0  0  0  0  0  0  0  0  0
    1.5753    0.9103    2.0948 H   0  0  0  0  0  0  0  0  0  0  0  0
    2.7827   -0.3548    2.3020 H   0  0  0  0  0  0  0  0  0  0  0  0
    1.0727   -0.7845    2.1770 H   0  0  0  0  0  0  0  0  0  0  0  0
  1  8  2  0
  2  3  1  0
  2  4  1  0
  2  6  1  0
  2  7  1  1
  3  4  1  0
  3  5  1  0
  3 12  1  1
  4 13  1  0
  4 14  1  0
  5  8  1  0
  5  9  1  0
  5 15  1  6
  6  8  1  0
  6 16  1  0
  6 17  1  0
  7 10  1  0
  7 11  1  0
  7 18  1  0
  9 19  1  0
  9 20  1  0
  9 21  1  0
 10 22  1  0
 10 23  1  0
 10 24  1  0
 11 25  1  0
 11 26  1  0
 11 27  1  0
M  END
>  <conformerSource>
pubchem

$$$$
