apigenin-7-glucoside
     RDKit          3D

 51 54  0  0  0  0  0  0  0  0999 V2000
   -3.3791    0.0852   -0.5887 O   0  0  0  0  0  0  0  0  0  0  0  0
   -2.5852    0.7311    1.5081 O   0  0  0  0  0  0  0  0  0  0  0  0
   -6.5906   -1.8550    1.0812 O   0  0  0  0  0  0  0  0  0  0  0  0
   -5.8314   -2.4194   -1.6502 O   0  0  0  0  0  0  0  0  0  0  0  0
   -4.2108   -1.2495    2.7093 O   0  0  0  0  0  0  0  0  0  0  0  0
   -2.6881   -0.0775   -3.2443 O   0  0  0  0  0  0  0  0  0  0  0  0
    1.9865   -0.0292    0.4689 O   0  0  0  0  0  0  0  0  0  0  0  0
    0.0161    4.3609   -0.1140 O   0  0  0  0  0  0  0  0  0  0  0  0
    2.5313    3.8482   -0.6570 O   0  0  0  0  0  0  0  0  0  0  0  0
    7.2515   -3.4933   -0.0458 O   0  0  0  0  0  0  0  0  0  0  0  0
   -5.2539   -1.7437    0.5901 C   0  0  1  0  0  0  0  0  0  0  0  0
   -5.3232   -1.3327   -0.8807 C   0  0  1  0  0  0  0  0  0  0  0  0
   -4.4918   -0.7091    1.4184 C   0  0  2  0  0  0  0  0  0  0  0  0
   -3.9371   -0.9476   -1.4031 C   0  0  1  0  0  0  0  0  0  0  0  0
   -3.1656   -0.3347    0.7569 C   0  0  1  0  0  0  0  0  0  0  0  0
   -3.9986   -0.4224   -2.8339 C   0  0  0  0  0  0  0  0  0  0  0  0
   -1.3886    1.2103    1.0634 C   0  0  0  0  0  0  0  0  0  0  0  0
   -0.2852    0.3604    0.9818 C   0  0  0  0  0  0  0  0  0  0  0  0
   -1.2697    2.5501    0.6913 C   0  0  0  0  0  0  0  0  0  0  0  0
    0.9379    0.8535    0.5269 C   0  0  0  0  0  0  0  0  0  0  0  0
    1.0547    2.1920    0.1558 C   0  0  0  0  0  0  0  0  0  0  0  0
   -0.0474    3.0462    0.2362 C   0  0  0  0  0  0  0  0  0  0  0  0
    2.3565    2.6858   -0.3185 C   0  0  0  0  0  0  0  0  0  0  0  0
    3.2129    0.4310    0.0141 C   0  0  0  0  0  0  0  0  0  0  0  0
    3.4521    1.6966   -0.3646 C   0  0  0  0  0  0  0  0  0  0  0  0
    4.2715   -0.5986   -0.0021 C   0  0  0  0  0  0  0  0  0  0  0  0
    5.3109   -0.5216   -0.9324 C   0  0  0  0  0  0  0  0  0  0  0  0
    4.2386   -1.6531    0.9134 C   0  0  0  0  0  0  0  0  0  0  0  0
    6.3112   -1.4935   -0.9473 C   0  0  0  0  0  0  0  0  0  0  0  0
    5.2391   -2.6250    0.8986 C   0  0  0  0  0  0  0  0  0  0  0  0
    6.2754   -2.5453   -0.0318 C   0  0  0  0  0  0  0  0  0  0  0  0
   -4.8000   -2.7363    0.7001 H   0  0  0  0  0  0  0  0  0  0  0  0
   -6.0236   -0.4959   -0.9926 H   0  0  0  0  0  0  0  0  0  0  0  0
   -5.1109    0.1822    1.5756 H   0  0  0  0  0  0  0  0  0  0  0  0
   -3.2561   -1.8094   -1.3875 H   0  0  0  0  0  0  0  0  0  0  0  0
   -2.4902   -1.2002    0.7742 H   0  0  0  0  0  0  0  0  0  0  0  0
   -4.3895   -1.1744   -3.5251 H   0  0  0  0  0  0  0  0  0  0  0  0
   -4.6182    0.4778   -2.9041 H   0  0  0  0  0  0  0  0  0  0  0  0
   -7.0510   -2.5081    0.5267 H   0  0  0  0  0  0  0  0  0  0  0  0
   -5.2125   -3.1645   -1.5629 H   0  0  0  0  0  0  0  0  0  0  0  0
   -3.6627   -2.0439    2.5912 H   0  0  0  0  0  0  0  0  0  0  0  0
   -2.3483    0.5850   -2.6186 H   0  0  0  0  0  0  0  0  0  0  0  0
   -0.3612   -0.6801    1.2859 H   0  0  0  0  0  0  0  0  0  0  0  0
   -2.1335    3.2074    0.7566 H   0  0  0  0  0  0  0  0  0  0  0  0
    4.4182    2.0610   -0.6934 H   0  0  0  0  0  0  0  0  0  0  0  0
    0.9085    4.5900   -0.4155 H   0  0  0  0  0  0  0  0  0  0  0  0
    5.3630    0.2690   -1.6762 H   0  0  0  0  0  0  0  0  0  0  0  0
    3.4483   -1.7362    1.6554 H   0  0  0  0  0  0  0  0  0  0  0  0
    7.1107   -1.4230   -1.6801 H   0  0  0  0  0  0  0  0  0  0  0  0
    5.2072   -3.4409    1.6155 H   0  0  0  0  0  0  0  0  0  0  0  0
    7.8861   -3.2818   -0.7520 H   0  0  0  0  0  0  0  0  0  0  0  0
  1 14  1  0
  1 15  1  0
  2 15  1  0
  2 17  1  0
  3 11  1  0
  3 39  1  0
  4 12  1  0
  4 40  1  0
  5 13  1  0
  5 41  1  0
  6 16  1  0
  6 42  1  0
  7 20  1  0
  7 24  1  0
  8 22  1  0
  8 46  1  0
  9 23  2  0
 10 31  1  0
 10 51  1  0
 11 12  1  0
 11 13  1  0
 11 32  1  6
 12 14  1  0
 12 33  1  1
 13 15  1  0
 13 34  1  1
 14 16  1  0
 14 35  1  6
 15 36  1  6
 16 37  1  0
 16 38  1  0
 17 18  1  0
 17 19  2  0
 18 20  2  0
 18 43  1  0
 19 22  1  0
 19 44  1  0
 20 21  1  0
 21 22  2  0
 21 23  1  0
 23 25  1  0
 24 25  2  0
 24 26  1  0
 25 45  1  0
 26 27  1  0
 26 28  2  0
 27 29  2  0
 27 47  1  0
 28 30  1  0
 28 48  1  0
 29 31  1  0
 29 49  1  0
 30 31  2  0
 30 50  1  0
M  END
>  <conformerSource>
pubchem

$$$$
