baicalin
     RDKit          3D

 50 53  0  0  0  0  0  0  0  0999 V2000
    2.9290   -0.0447   -0.3846 O   0  0  0  0  0  0  0  0  0  0  0  0
    1.9994   -0.8147    1.6118 O   0  0  0  0  0  0  0  0  0  0  0  0
    6.1639    1.5517    1.5797 O   0  0  0  0  0  0  0  0  0  0  0  0
    3.6891    0.9337    3.0516 O   0  0  0  0  0  0  0  0  0  0  0  0
    5.5162    2.4364   -1.1121 O   0  0  0  0  0  0  0  0  0  0  0  0
    4.2740    1.4181   -3.2791 O   0  0  0  0  0  0  0  0  0  0  0  0
    3.3567   -0.6209   -2.8351 O   0  0  0  0  0  0  0  0  0  0  0  0
   -2.4531    0.3571    0.4720 O   0  0  0  0  0  0  0  0  0  0  0  0
    1.6201   -3.3725    0.6285 O   0  0  0  0  0  0  0  0  0  0  0  0
   -0.7839   -4.0953   -0.4414 O   0  0  0  0  0  0  0  0  0  0  0  0
   -3.2177   -3.3537   -1.0259 O   0  0  0  0  0  0  0  0  0  0  0  0
    4.8459    1.5618    1.0293 C   0  0  2  0  0  0  0  0  0  0  0  0
    3.9936    0.5007    1.7259 C   0  0  2  0  0  0  0  0  0  0  0  0
    4.9579    1.2905   -0.4713 C   0  0  1  0  0  0  0  0  0  0  0  0
    2.6776    0.2719    0.9822 C   0  0  1  0  0  0  0  0  0  0  0  0
    3.5864    1.0127   -1.0736 C   0  0  1  0  0  0  0  0  0  0  0  0
    3.7101    0.4899   -2.4682 C   0  0  0  0  0  0  0  0  0  0  0  0
    0.7971   -1.1762    1.0778 C   0  0  0  0  0  0  0  0  0  0  0  0
   -0.2393   -0.2432    1.0328 C   0  0  0  0  0  0  0  0  0  0  0  0
    0.6013   -2.4652    0.5801 C   0  0  0  0  0  0  0  0  0  0  0  0
   -1.4726   -0.6023    0.4885 C   0  0  0  0  0  0  0  0  0  0  0  0
   -1.6664   -1.8902   -0.0080 C   0  0  0  0  0  0  0  0  0  0  0  0
   -0.6314   -2.8274    0.0354 C   0  0  0  0  0  0  0  0  0  0  0  0
   -2.9770   -2.2422   -0.5751 C   0  0  0  0  0  0  0  0  0  0  0  0
   -3.6869    0.0313   -0.0702 C   0  0  0  0  0  0  0  0  0  0  0  0
   -3.9971   -1.1744   -0.5727 C   0  0  0  0  0  0  0  0  0  0  0  0
   -4.6687    1.1337   -0.0326 C   0  0  0  0  0  0  0  0  0  0  0  0
   -6.0326    0.8553    0.0881 C   0  0  0  0  0  0  0  0  0  0  0  0
   -4.2386    2.4603   -0.1170 C   0  0  0  0  0  0  0  0  0  0  0  0
   -6.9602    1.8966    0.1242 C   0  0  0  0  0  0  0  0  0  0  0  0
   -5.1661    3.5016   -0.0807 C   0  0  0  0  0  0  0  0  0  0  0  0
   -6.5269    3.2196    0.0398 C   0  0  0  0  0  0  0  0  0  0  0  0
    4.4413    2.5654    1.2109 H   0  0  0  0  0  0  0  0  0  0  0  0
    4.5493   -0.4413    1.8132 H   0  0  0  0  0  0  0  0  0  0  0  0
    5.6445    0.4534   -0.6482 H   0  0  0  0  0  0  0  0  0  0  0  0
    2.0600    1.1771    1.0509 H   0  0  0  0  0  0  0  0  0  0  0  0
    2.9381    1.8975   -1.0974 H   0  0  0  0  0  0  0  0  0  0  0  0
    6.0955    1.8099    2.5142 H   0  0  0  0  0  0  0  0  0  0  0  0
    4.5254    0.9875    3.5439 H   0  0  0  0  0  0  0  0  0  0  0  0
    4.9142    3.1863   -0.9674 H   0  0  0  0  0  0  0  0  0  0  0  0
   -0.1057    0.7576    1.4344 H   0  0  0  0  0  0  0  0  0  0  0  0
    4.3658    1.0929   -4.2001 H   0  0  0  0  0  0  0  0  0  0  0  0
   -4.9583   -1.4229   -1.0071 H   0  0  0  0  0  0  0  0  0  0  0  0
    2.3937   -2.9438    1.0342 H   0  0  0  0  0  0  0  0  0  0  0  0
   -1.6767   -4.2245   -0.7953 H   0  0  0  0  0  0  0  0  0  0  0  0
   -6.4088   -0.1602    0.1789 H   0  0  0  0  0  0  0  0  0  0  0  0
   -3.1851    2.7088   -0.2198 H   0  0  0  0  0  0  0  0  0  0  0  0
   -8.0194    1.6778    0.2230 H   0  0  0  0  0  0  0  0  0  0  0  0
   -4.8292    4.5319   -0.1480 H   0  0  0  0  0  0  0  0  0  0  0  0
   -7.2489    4.0305    0.0688 H   0  0  0  0  0  0  0  0  0  0  0  0
  1 15  1  0
  1 16  1  0
  2 15  1  0
  2 18  1  0
  3 12  1  0
  3 38  1  0
  4 13  1  0
  4 39  1  0
  5 14  1  0
  5 40  1  0
  6 17  1  0
  6 42  1  0
  7 17  2  0
  8 21  1  0
  8 25  1  0
  9 20  1  0
  9 44  1  0
 10 23  1  0
 10 45  1  0
 11 24  2  0
 12 13  1  0
 12 14  1  0
 12 33  1  6
 13 15  1  0
 13 34  1  1
 14 16  1  0
 14 35  1  1
 15 36  1  6
 16 17  1  0
 16 37  1  6
 18 19  1  0
 18 20  2  0
 19 21  2  0
 19 41  1  0
 20 23  1  0
 21 22  1  0
 22 23  2  0
 22 24  1  0
 24 26  1  0
 25 26  2  0
 25 27  1  0
 26 43  1  0
 27 28  2  0
 27 29  1  0
 28 30  1  0
 28 46  1  0
 29 31  2  0
 29 47  1  0
 30 32  2  0
 30 48  1  0
 31 32  1  0
 31 49  1  0
 32 50  1  0
M  END
>  <conformerSource>
pubchem

$$$$
