baicalein
     RDKit          3D

 30 32  0  0  0  0  0  0  0  0999 V2000
    0.4895    0.8121   -0.0497 O   0  0  0  0  0  0  0  0  0  0  0  0
   -3.4425   -2.0081    0.1208 O   0  0  0  0  0  0  0  0  0  0  0  0
   -5.0032    0.2257   -0.0315 O   0  0  0  0  0  0  0  0  0  0  0  0
   -3.8441    2.7306   -0.1903 O   0  0  0  0  0  0  0  0  0  0  0  0
   -1.0157   -2.9664    0.1876 O   0  0  0  0  0  0  0  0  0  0  0  0
   -1.4494   -0.6482    0.0391 C   0  0  0  0  0  0  0  0  0  0  0  0
   -0.8683    0.6161   -0.0414 C   0  0  0  0  0  0  0  0  0  0  0  0
    1.3175   -0.2970    0.0333 C   0  0  0  0  0  0  0  0  0  0  0  0
   -2.8391   -0.7881    0.0429 C   0  0  0  0  0  0  0  0  0  0  0  0
   -0.5742   -1.8277    0.1181 C   0  0  0  0  0  0  0  0  0  0  0  0
    0.8789   -1.5637    0.1082 C   0  0  0  0  0  0  0  0  0  0  0  0
    2.7581    0.0266    0.0103 C   0  0  0  0  0  0  0  0  0  0  0  0
   -1.6759    1.7510   -0.1191 C   0  0  0  0  0  0  0  0  0  0  0  0
   -3.6445    0.3488   -0.0345 C   0  0  0  0  0  0  0  0  0  0  0  0
   -3.0644    1.6155   -0.1154 C   0  0  0  0  0  0  0  0  0  0  0  0
    3.6711   -0.8734   -0.5451 C   0  0  0  0  0  0  0  0  0  0  0  0
    3.2148    1.2343    0.5441 C   0  0  0  0  0  0  0  0  0  0  0  0
    5.0318   -0.5676   -0.5666 C   0  0  0  0  0  0  0  0  0  0  0  0
    4.5755    1.5403    0.5223 C   0  0  0  0  0  0  0  0  0  0  0  0
    5.4841    0.6393   -0.0331 C   0  0  0  0  0  0  0  0  0  0  0  0
    1.5280   -2.4280    0.1854 H   0  0  0  0  0  0  0  0  0  0  0  0
   -1.2261    2.7386   -0.1821 H   0  0  0  0  0  0  0  0  0  0  0  0
    3.3569   -1.8136   -0.9906 H   0  0  0  0  0  0  0  0  0  0  0  0
    2.5301    1.9512    0.9907 H   0  0  0  0  0  0  0  0  0  0  0  0
    5.7391   -1.2666   -1.0034 H   0  0  0  0  0  0  0  0  0  0  0  0
    4.9282    2.4791    0.9391 H   0  0  0  0  0  0  0  0  0  0  0  0
    6.5435    0.8777   -0.0508 H   0  0  0  0  0  0  0  0  0  0  0  0
   -2.7823   -2.7156    0.1737 H   0  0  0  0  0  0  0  0  0  0  0  0
   -5.2255   -0.7196    0.0297 H   0  0  0  0  0  0  0  0  0  0  0  0
   -4.7766    2.4531   -0.1755 H   0  0  0  0  0  0  0  0  0  0  0  0
  1  7  1  0
  1  8  1  0
  2  9  1  0
  2 28  1  0
  3 14  1  0
  3 29  1  0
  4 15  1  0
  4 30  1  0
  5 10  2  0
  6  7  1  0
  6  9  2  0
  6 10  1  0
  7 13  2  0
  8 11  2  0
  8 12  1  0
  9 14  1  0
 10 11  1  0
 11 21  1  0
 12 16  2  0
 12 17  1  0
 13 15  1  0
 13 22  1  0
 14 15  2  0
 16 18  1  0
 16 23  1  0
 17 19  2  0
 17 24  1  0
 18 20  2  0
 18 25  1  0
 19 20  1  0
 19 26  1  0
 20 27  1  0
M  END
>  <conformerSource>
pubchem

$$$$
