beta-thujone
     RDKit          3D

 27 28  0  0  0  0  0  0  0  0999 V2000
    2.2053    1.8216    0.2227 O   0  0  0  0  0  0  0  0  0  0  0  0
   -0.6785   -0.2730    0.2695 C   0  0  1  0  0  0  0  0  0  0  0  0
    0.3198   -1.1451   -0.4290 C   0  0  2  0  0  0  0  0  0  0  0  0
   -0.1833   -1.5230    0.9415 C   0  0  0  0  0  0  0  0  0  0  0  0
    1.5972   -0.3751   -0.6432 C   0  0  1  0  0  0  0  0  0  0  0  0
   -0.0677    1.0605    0.5822 C   0  0  0  0  0  0  0  0  0  0  0  0
   -2.0877   -0.2616   -0.2097 C   0  0  0  0  0  0  0  0  0  0  0  0
    1.3604    0.9478    0.0796 C   0  0  0  0  0  0  0  0  0  0  0  0
    2.8219   -1.1017   -0.1230 C   0  0  0  0  0  0  0  0  0  0  0  0
   -3.0474    0.3318    0.8397 C   0  0  0  0  0  0  0  0  0  0  0  0
   -2.2401    0.5178   -1.5304 C   0  0  0  0  0  0  0  0  0  0  0  0
    0.0250   -1.7559   -1.2703 H   0  0  0  0  0  0  0  0  0  0  0  0
    0.4799   -1.4204    1.7921 H   0  0  0  0  0  0  0  0  0  0  0  0
   -0.8438   -2.3796    1.0116 H   0  0  0  0  0  0  0  0  0  0  0  0
    1.7040   -0.1531   -1.7111 H   0  0  0  0  0  0  0  0  0  0  0  0
   -0.0571    1.2393    1.6615 H   0  0  0  0  0  0  0  0  0  0  0  0
   -0.5397    1.9019    0.0716 H   0  0  0  0  0  0  0  0  0  0  0  0
   -2.4191   -1.2902   -0.4071 H   0  0  0  0  0  0  0  0  0  0  0  0
    3.7313   -0.5310   -0.3395 H   0  0  0  0  0  0  0  0  0  0  0  0
    2.7792   -1.2444    0.9622 H   0  0  0  0  0  0  0  0  0  0  0  0
    2.9171   -2.0883   -0.5882 H   0  0  0  0  0  0  0  0  0  0  0  0
   -2.8267    1.3851    1.0425 H   0  0  0  0  0  0  0  0  0  0  0  0
   -4.0850    0.2638    0.4961 H   0  0  0  0  0  0  0  0  0  0  0  0
   -2.9667   -0.2139    1.7859 H   0  0  0  0  0  0  0  0  0  0  0  0
   -2.0782    1.5924   -1.4047 H   0  0  0  0  0  0  0  0  0  0  0  0
   -3.2514    0.3863   -1.9310 H   0  0  0  0  0  0  0  0  0  0  0  0
   -1.5333    0.1561   -2.2844 H   0  0  0  0  0  0  0  0  0  0  0  0
  1  8  2  0
  2  3  1  0
  2  4  1  0
  2  6  1  0
  2  7  1  6
  3  4  1  0
  3  5  1  0
  3 12  1  6
  4 13  1  0
  4 14  1  0
  5  8  1  0
  5  9  1  0
  5 15  1  6
  6  8  1  0
  6 16  1  0
  6 17  1  0
  7 10  1  0
  7 11  1  0
  7 18  1  0
  9 19  1  0
  9 20  1  0
  9 21  1  0
 10 22  1  0
 10 23  1  0
 10 24  1  0
 11 25  1  0
 11 26  1  0
 11 27  1  0
M  END
>  <conformerSource>
pubchem

$$$$
