bisabolol-oxide-a
     RDKit          3D

 43 44  0  0  0  0  0  0  0  0999 V2000
   -0.9133   -0.4452    0.5681 O   0  0  0  0  0  0  0  0  0  0  0  0
   -2.4740    2.1265    0.3891 O   0  0  0  0  0  0  0  0  0  0  0  0
   -0.4813   -0.5327   -0.7944 C   0  0  2  0  0  0  0  0  0  0  0  0
    1.0386   -0.2950   -0.7398 C   0  0  1  0  0  0  0  0  0  0  0  0
   -1.1169    0.5541   -1.6747 C   0  0  0  0  0  0  0  0  0  0  0  0
   -2.3034   -0.2691    0.8769 C   0  0  0  0  0  0  0  0  0  0  0  0
   -2.6244    0.6577   -1.4721 C   0  0  0  0  0  0  0  0  0  0  0  0
   -2.9505    0.8326    0.0084 C   0  0  2  0  0  0  0  0  0  0  0  0
    1.3611    1.1079   -0.2156 C   0  0  0  0  0  0  0  0  0  0  0  0
    1.7259   -1.3586    0.1315 C   0  0  0  0  0  0  0  0  0  0  0  0
   -0.7011   -1.9384   -1.3689 C   0  0  0  0  0  0  0  0  0  0  0  0
    2.8714    1.3646   -0.2126 C   0  0  0  0  0  0  0  0  0  0  0  0
   -2.3168    0.1217    2.3674 C   0  0  0  0  0  0  0  0  0  0  0  0
   -3.0710   -1.5954    0.7587 C   0  0  0  0  0  0  0  0  0  0  0  0
    3.1496   -1.0205    0.4647 C   0  0  0  0  0  0  0  0  0  0  0  0
    3.6837    0.2019    0.2999 C   0  0  0  0  0  0  0  0  0  0  0  0
    5.1225    0.4878    0.6133 C   0  0  0  0  0  0  0  0  0  0  0  0
    1.4484   -0.3681   -1.7586 H   0  0  0  0  0  0  0  0  0  0  0  0
   -0.8973    0.3647   -2.7328 H   0  0  0  0  0  0  0  0  0  0  0  0
   -0.7522    1.5584   -1.4691 H   0  0  0  0  0  0  0  0  0  0  0  0
   -2.9979    1.5174   -2.0422 H   0  0  0  0  0  0  0  0  0  0  0  0
   -3.1240   -0.2296   -1.8741 H   0  0  0  0  0  0  0  0  0  0  0  0
   -4.0390    0.8418    0.1418 H   0  0  0  0  0  0  0  0  0  0  0  0
    0.9780    1.2343    0.8053 H   0  0  0  0  0  0  0  0  0  0  0  0
    0.9439    1.9172   -0.8149 H   0  0  0  0  0  0  0  0  0  0  0  0
    1.7365   -2.3183   -0.3983 H   0  0  0  0  0  0  0  0  0  0  0  0
    1.1987   -1.5204    1.0788 H   0  0  0  0  0  0  0  0  0  0  0  0
   -0.0564   -2.1296   -2.2344 H   0  0  0  0  0  0  0  0  0  0  0  0
   -0.5322   -2.7184   -0.6189 H   0  0  0  0  0  0  0  0  0  0  0  0
   -1.7249   -2.0747   -1.7263 H   0  0  0  0  0  0  0  0  0  0  0  0
    3.0700    2.2538    0.3980 H   0  0  0  0  0  0  0  0  0  0  0  0
    3.2042    1.5942   -1.2328 H   0  0  0  0  0  0  0  0  0  0  0  0
   -1.6679    0.9835    2.5610 H   0  0  0  0  0  0  0  0  0  0  0  0
   -3.3280    0.3569    2.7154 H   0  0  0  0  0  0  0  0  0  0  0  0
   -1.9204   -0.6930    2.9855 H   0  0  0  0  0  0  0  0  0  0  0  0
   -4.0544   -1.5266    1.2375 H   0  0  0  0  0  0  0  0  0  0  0  0
   -3.2494   -1.8872   -0.2776 H   0  0  0  0  0  0  0  0  0  0  0  0
   -2.5131   -2.4130    1.2286 H   0  0  0  0  0  0  0  0  0  0  0  0
    3.7613   -1.8294    0.8559 H   0  0  0  0  0  0  0  0  0  0  0  0
   -2.9093    2.3674    1.2243 H   0  0  0  0  0  0  0  0  0  0  0  0
    5.6390    0.8541   -0.2797 H   0  0  0  0  0  0  0  0  0  0  0  0
    5.6540   -0.4031    0.9640 H   0  0  0  0  0  0  0  0  0  0  0  0
    5.1968    1.2501    1.3956 H   0  0  0  0  0  0  0  0  0  0  0  0
  1  3  1  0
  1  6  1  0
  2  8  1  0
  2 40  1  0
  3  4  1  0
  3  5  1  0
  3 11  1  6
  4  9  1  0
  4 10  1  0
  4 18  1  6
  5  7  1  0
  5 19  1  0
  5 20  1  0
  6  8  1  0
  6 13  1  0
  6 14  1  0
  7  8  1  0
  7 21  1  0
  7 22  1  0
  8 23  1  6
  9 12  1  0
  9 24  1  0
  9 25  1  0
 10 15  1  0
 10 26  1  0
 10 27  1  0
 11 28  1  0
 11 29  1  0
 11 30  1  0
 12 16  1  0
 12 31  1  0
 12 32  1  0
 13 33  1  0
 13 34  1  0
 13 35  1  0
 14 36  1  0
 14 37  1  0
 14 38  1  0
 15 16  2  0
 15 39  1  0
 16 17  1  0
 17 41  1  0
 17 42  1  0
 17 43  1  0
M  END
>  <conformerSource>
pubchem

$$$$
