carnosol
     RDKit          3D

 50 53  0  0  0  0  0  0  0  0999 V2000
    0.8498    1.9861    1.4268 O   0  0  0  0  0  0  0  0  0  0  0  0
    2.0136    0.5473    2.7518 O   0  0  0  0  0  0  0  0  0  0  0  0
   -0.6762   -2.6827    0.5039 O   0  0  0  0  0  0  0  0  0  0  0  0
   -3.2998   -2.3256   -0.0064 O   0  0  0  0  0  0  0  0  0  0  0  0
    1.8089    0.3768   -0.7838 C   0  0  2  0  0  0  0  0  0  0  0  0
    1.2385   -0.2504    0.5430 C   0  0  2  0  0  0  0  0  0  0  0  0
    3.3226    0.1183   -1.0287 C   0  0  0  0  0  0  0  0  0  0  0  0
    1.3159    1.8469   -0.9097 C   0  0  0  0  0  0  0  0  0  0  0  0
    1.9253   -1.5904    0.8781 C   0  0  0  0  0  0  0  0  0  0  0  0
    3.5837   -1.4199   -1.0392 C   0  0  0  0  0  0  0  0  0  0  0  0
    0.2091    2.0866    0.1297 C   0  0  1  0  0  0  0  0  0  0  0  0
   -0.2770   -0.3000    0.3065 C   0  0  0  0  0  0  0  0  0  0  0  0
    2.4988   -2.2673   -0.3607 C   0  0  0  0  0  0  0  0  0  0  0  0
   -0.8195    0.9848    0.0706 C   0  0  0  0  0  0  0  0  0  0  0  0
    1.4379    0.7718    1.6951 C   0  0  0  0  0  0  0  0  0  0  0  0
    4.2266    0.7794    0.0324 C   0  0  0  0  0  0  0  0  0  0  0  0
    3.7402    0.6903   -2.4018 C   0  0  0  0  0  0  0  0  0  0  0  0
   -1.1072   -1.4144    0.2724 C   0  0  0  0  0  0  0  0  0  0  0  0
   -2.1739    1.1597   -0.1816 C   0  0  0  0  0  0  0  0  0  0  0  0
   -3.0004    0.0373   -0.2056 C   0  0  0  0  0  0  0  0  0  0  0  0
   -2.4707   -1.2397    0.0181 C   0  0  0  0  0  0  0  0  0  0  0  0
   -4.4603    0.2188   -0.4676 C   0  0  0  0  0  0  0  0  0  0  0  0
   -4.7363    0.8176   -1.8587 C   0  0  0  0  0  0  0  0  0  0  0  0
   -5.1494    1.0687    0.6154 C   0  0  0  0  0  0  0  0  0  0  0  0
    1.3077   -0.1471   -1.6174 H   0  0  0  0  0  0  0  0  0  0  0  0
    0.9369    2.0209   -1.9240 H   0  0  0  0  0  0  0  0  0  0  0  0
    2.1315    2.5552   -0.7347 H   0  0  0  0  0  0  0  0  0  0  0  0
    1.2999   -2.2662    1.4641 H   0  0  0  0  0  0  0  0  0  0  0  0
    2.7799   -1.4145    1.5449 H   0  0  0  0  0  0  0  0  0  0  0  0
    4.5483   -1.6355   -0.5611 H   0  0  0  0  0  0  0  0  0  0  0  0
    3.6845   -1.7865   -2.0692 H   0  0  0  0  0  0  0  0  0  0  0  0
   -0.2331    3.0828    0.0366 H   0  0  0  0  0  0  0  0  0  0  0  0
    2.9243   -3.2403   -0.0881 H   0  0  0  0  0  0  0  0  0  0  0  0
    1.7066   -2.4720   -1.0886 H   0  0  0  0  0  0  0  0  0  0  0  0
    4.0469    1.8557    0.1113 H   0  0  0  0  0  0  0  0  0  0  0  0
    4.0942    0.3437    1.0250 H   0  0  0  0  0  0  0  0  0  0  0  0
    5.2848    0.6507   -0.2257 H   0  0  0  0  0  0  0  0  0  0  0  0
    4.7798    0.4330   -2.6358 H   0  0  0  0  0  0  0  0  0  0  0  0
    3.1115    0.2898   -3.2050 H   0  0  0  0  0  0  0  0  0  0  0  0
    3.6603    1.7822   -2.4283 H   0  0  0  0  0  0  0  0  0  0  0  0
   -2.5642    2.1577   -0.3542 H   0  0  0  0  0  0  0  0  0  0  0  0
   -4.9905   -0.7384   -0.4462 H   0  0  0  0  0  0  0  0  0  0  0  0
   -0.0993   -2.9247   -0.2391 H   0  0  0  0  0  0  0  0  0  0  0  0
   -3.8570   -2.2688   -0.8009 H   0  0  0  0  0  0  0  0  0  0  0  0
   -4.3463    1.8367   -1.9532 H   0  0  0  0  0  0  0  0  0  0  0  0
   -5.8138    0.8561   -2.0534 H   0  0  0  0  0  0  0  0  0  0  0  0
   -4.2753    0.2068   -2.6430 H   0  0  0  0  0  0  0  0  0  0  0  0
   -4.9832    0.6405    1.6102 H   0  0  0  0  0  0  0  0  0  0  0  0
   -6.2306    1.1080    0.4432 H   0  0  0  0  0  0  0  0  0  0  0  0
   -4.7784    2.0991    0.6272 H   0  0  0  0  0  0  0  0  0  0  0  0
  1 11  1  0
  1 15  1  0
  2 15  2  0
  3 18  1  0
  3 43  1  0
  4 21  1  0
  4 44  1  0
  5  6  1  0
  5  7  1  0
  5  8  1  0
  5 25  1  6
  6  9  1  1
  6 12  1  0
  6 15  1  0
  7 10  1  0
  7 16  1  0
  7 17  1  0
  8 11  1  0
  8 26  1  0
  8 27  1  0
  9 13  1  0
  9 28  1  0
  9 29  1  0
 10 13  1  0
 10 30  1  0
 10 31  1  0
 11 14  1  0
 11 32  1  6
 12 14  2  0
 12 18  1  0
 13 33  1  0
 13 34  1  0
 14 19  1  0
 16 35  1  0
 16 36  1  0
 16 37  1  0
 17 38  1  0
 17 39  1  0
 17 40  1  0
 18 21  2  0
 19 20  2  0
 19 41  1  0
 20 21  1  0
 20 22  1  0
 22 23  1  0
 22 24  1  0
 22 42  1  0
 23 45  1  0
 23 46  1  0
 23 47  1  0
 24 48  1  0
 24 49  1  0
 24 50  1  0
M  END
>  <conformerSource>
pubchem

$$$$
