citronellal
     RDKit          3D

 29 28  0  0  0  0  0  0  0  0999 V2000
    4.8390    0.4287    0.3941 O   0  0  0  0  0  0  0  0  0  0  0  0
    1.4301   -0.2017   -0.3354 C   0  0  1  0  0  0  0  0  0  0  0  0
    0.0443   -0.0889    0.3358 C   0  0  0  0  0  0  0  0  0  0  0  0
   -1.0458   -0.9032   -0.3680 C   0  0  0  0  0  0  0  0  0  0  0  0
    2.4234    0.7191    0.3945 C   0  0  0  0  0  0  0  0  0  0  0  0
    1.9406   -1.6475   -0.3386 C   0  0  0  0  0  0  0  0  0  0  0  0
   -2.3740   -0.7339    0.3157 C   0  0  0  0  0  0  0  0  0  0  0  0
   -3.3228    0.1850    0.0541 C   0  0  0  0  0  0  0  0  0  0  0  0
    3.8120    0.7276   -0.2052 C   0  0  0  0  0  0  0  0  0  0  0  0
   -4.6346    0.3011    0.7774 C   0  0  0  0  0  0  0  0  0  0  0  0
   -3.1122    1.2138   -1.0245 C   0  0  0  0  0  0  0  0  0  0  0  0
    1.3492    0.1306   -1.3785 H   0  0  0  0  0  0  0  0  0  0  0  0
    0.1188   -0.4091    1.3839 H   0  0  0  0  0  0  0  0  0  0  0  0
   -0.2513    0.9683    0.3551 H   0  0  0  0  0  0  0  0  0  0  0  0
   -1.1008   -0.6429   -1.4301 H   0  0  0  0  0  0  0  0  0  0  0  0
   -0.8053   -1.9720   -0.3378 H   0  0  0  0  0  0  0  0  0  0  0  0
    2.5133    0.4262    1.4475 H   0  0  0  0  0  0  0  0  0  0  0  0
    2.0630    1.7542    0.3724 H   0  0  0  0  0  0  0  0  0  0  0  0
    1.2955   -2.2977   -0.9368 H   0  0  0  0  0  0  0  0  0  0  0  0
    2.9417   -1.7174   -0.7760 H   0  0  0  0  0  0  0  0  0  0  0  0
    1.9872   -2.0529    0.6778 H   0  0  0  0  0  0  0  0  0  0  0  0
   -2.5664   -1.4429    1.1198 H   0  0  0  0  0  0  0  0  0  0  0  0
    3.8599    1.0500   -1.2601 H   0  0  0  0  0  0  0  0  0  0  0  0
   -4.7414   -0.4724    1.5450 H   0  0  0  0  0  0  0  0  0  0  0  0
   -4.7149    1.2752    1.2703 H   0  0  0  0  0  0  0  0  0  0  0  0
   -5.4677    0.1931    0.0755 H   0  0  0  0  0  0  0  0  0  0  0  0
   -3.3082    2.2154   -0.6252 H   0  0  0  0  0  0  0  0  0  0  0  0
   -3.8087    1.0356   -1.8506 H   0  0  0  0  0  0  0  0  0  0  0  0
   -2.1020    1.2404   -1.4382 H   0  0  0  0  0  0  0  0  0  0  0  0
  1  9  2  0
  2  3  1  0
  2  5  1  0
  2  6  1  0
  2 12  1  6
  3  4  1  0
  3 13  1  0
  3 14  1  0
  4  7  1  0
  4 15  1  0
  4 16  1  0
  5  9  1  0
  5 17  1  0
  5 18  1  0
  6 19  1  0
  6 20  1  0
  6 21  1  0
  7  8  2  0
  7 22  1  0
  8 10  1  0
  8 11  1  0
  9 23  1  0
 10 24  1  0
 10 25  1  0
 10 26  1  0
 11 27  1  0
 11 28  1  0
 11 29  1  0
M  END
>  <conformerSource>
pubchem

$$$$
