dihydrobaicalin
     RDKit          3D

 52 55  0  0  0  0  0  0  0  0999 V2000
   -2.8798    0.0004   -0.4094 O   0  0  0  0  0  0  0  0  0  0  0  0
   -2.0246    0.9393    1.5475 O   0  0  0  0  0  0  0  0  0  0  0  0
   -6.1618   -1.4746    1.5717 O   0  0  0  0  0  0  0  0  0  0  0  0
   -3.7434   -0.7094    3.0681 O   0  0  0  0  0  0  0  0  0  0  0  0
   -5.4165   -2.5635   -1.0180 O   0  0  0  0  0  0  0  0  0  0  0  0
    2.4624   -0.2800    0.6436 O   0  0  0  0  0  0  0  0  0  0  0  0
   -4.1136   -1.7062   -3.2187 O   0  0  0  0  0  0  0  0  0  0  0  0
   -3.2320    0.3733   -2.9108 O   0  0  0  0  0  0  0  0  0  0  0  0
   -1.6393    3.4133    0.3710 O   0  0  0  0  0  0  0  0  0  0  0  0
    0.7955    4.0900   -0.6497 O   0  0  0  0  0  0  0  0  0  0  0  0
    3.2606    3.3845   -1.0189 O   0  0  0  0  0  0  0  0  0  0  0  0
   -4.8263   -1.5121    1.0667 C   0  0  2  0  0  0  0  0  0  0  0  0
   -4.0082   -0.3878    1.7028 C   0  0  2  0  0  0  0  0  0  0  0  0
   -4.8913   -1.3631   -0.4537 C   0  0  1  0  0  0  0  0  0  0  0  0
   -2.6706   -0.2026    0.9858 C   0  0  1  0  0  0  0  0  0  0  0  0
   -3.5034   -1.1170   -1.0320 C   0  0  1  0  0  0  0  0  0  0  0  0
   -3.5862   -0.7090   -2.4673 C   0  0  0  0  0  0  0  0  0  0  0  0
   -0.8089    1.2722    1.0251 C   0  0  0  0  0  0  0  0  0  0  0  0
    3.4840   -0.1343   -0.3551 C   0  0  1  0  0  0  0  0  0  0  0  0
    4.1088    1.2584   -0.3008 C   0  0  0  0  0  0  0  0  0  0  0  0
    1.4828    0.6745    0.5487 C   0  0  0  0  0  0  0  0  0  0  0  0
    1.6859    1.9328   -0.0259 C   0  0  0  0  0  0  0  0  0  0  0  0
    0.2374    0.3515    1.0889 C   0  0  0  0  0  0  0  0  0  0  0  0
    3.0321    2.2896   -0.5189 C   0  0  0  0  0  0  0  0  0  0  0  0
   -0.6097    2.5191    0.4314 C   0  0  0  0  0  0  0  0  0  0  0  0
    0.6391    2.8555   -0.0924 C   0  0  0  0  0  0  0  0  0  0  0  0
    4.5270   -1.2093   -0.1337 C   0  0  0  0  0  0  0  0  0  0  0  0
    5.2128   -1.7494   -1.2214 C   0  0  0  0  0  0  0  0  0  0  0  0
    4.8017   -1.6585    1.1577 C   0  0  0  0  0  0  0  0  0  0  0  0
    6.1738   -2.7397   -1.0175 C   0  0  0  0  0  0  0  0  0  0  0  0
    5.7629   -2.6487    1.3615 C   0  0  0  0  0  0  0  0  0  0  0  0
    6.4489   -3.1893    0.2738 C   0  0  0  0  0  0  0  0  0  0  0  0
   -4.4172   -2.4902    1.3485 H   0  0  0  0  0  0  0  0  0  0  0  0
   -4.5811    0.5471    1.7019 H   0  0  0  0  0  0  0  0  0  0  0  0
   -5.5797   -0.5514   -0.7195 H   0  0  0  0  0  0  0  0  0  0  0  0
   -2.0448   -1.0908    1.1434 H   0  0  0  0  0  0  0  0  0  0  0  0
   -2.8458   -1.9925   -0.9637 H   0  0  0  0  0  0  0  0  0  0  0  0
   -6.6563   -2.1927    1.1407 H   0  0  0  0  0  0  0  0  0  0  0  0
    3.0116   -0.3090   -1.3334 H   0  0  0  0  0  0  0  0  0  0  0  0
   -3.2339   -1.5374    3.0898 H   0  0  0  0  0  0  0  0  0  0  0  0
   -4.8141   -3.2923   -0.7907 H   0  0  0  0  0  0  0  0  0  0  0  0
    4.8683    1.3696   -1.0827 H   0  0  0  0  0  0  0  0  0  0  0  0
    4.5703    1.4603    0.6730 H   0  0  0  0  0  0  0  0  0  0  0  0
    0.0987   -0.6159    1.5644 H   0  0  0  0  0  0  0  0  0  0  0  0
   -4.1783   -1.4569   -4.1653 H   0  0  0  0  0  0  0  0  0  0  0  0
    5.0088   -1.4059   -2.2320 H   0  0  0  0  0  0  0  0  0  0  0  0
    4.2915   -1.2448    2.0231 H   0  0  0  0  0  0  0  0  0  0  0  0
   -2.4230    3.0072    0.7806 H   0  0  0  0  0  0  0  0  0  0  0  0
   -0.0496    4.5687   -0.5912 H   0  0  0  0  0  0  0  0  0  0  0  0
    6.7085   -3.1601   -1.8643 H   0  0  0  0  0  0  0  0  0  0  0  0
    5.9797   -2.9967    2.3672 H   0  0  0  0  0  0  0  0  0  0  0  0
    7.1978   -3.9595    0.4326 H   0  0  0  0  0  0  0  0  0  0  0  0
  1 15  1  0
  1 16  1  0
  2 15  1  0
  2 18  1  0
  3 12  1  0
  3 38  1  0
  4 13  1  0
  4 40  1  0
  5 14  1  0
  5 41  1  0
  6 19  1  0
  6 21  1  0
  7 17  1  0
  7 45  1  0
  8 17  2  0
  9 25  1  0
  9 48  1  0
 10 26  1  0
 10 49  1  0
 11 24  2  0
 12 13  1  0
 12 14  1  0
 12 33  1  6
 13 15  1  0
 13 34  1  1
 14 16  1  0
 14 35  1  1
 15 36  1  6
 16 17  1  0
 16 37  1  6
 18 23  2  0
 18 25  1  0
 19 20  1  0
 19 27  1  0
 19 39  1  6
 20 24  1  0
 20 42  1  0
 20 43  1  0
 21 22  2  0
 21 23  1  0
 22 24  1  0
 22 26  1  0
 23 44  1  0
 25 26  2  0
 27 28  2  0
 27 29  1  0
 28 30  1  0
 28 46  1  0
 29 31  2  0
 29 47  1  0
 30 32  2  0
 30 50  1  0
 31 32  1  0
 31 51  1  0
 32 52  1  0
M  END
>  <conformerSource>
pubchem

$$$$
