eriocitrin
     RDKit          3D

 74 78  0  0  0  0  0  0  0  0999 V2000
   -3.1629   -0.8696    0.1258 O   0  0  0  0  0  0  0  0  0  0  0  0
   -3.0861    1.9009   -0.1317 O   0  0  0  0  0  0  0  0  0  0  0  0
   -1.9674    2.8045   -2.0194 O   0  0  0  0  0  0  0  0  0  0  0  0
   -6.3357    0.8648    0.7081 O   0  0  0  0  0  0  0  0  0  0  0  0
   -2.2323   -2.8090    1.0294 O   0  0  0  0  0  0  0  0  0  0  0  0
   -5.9387   -0.6400    3.1440 O   0  0  0  0  0  0  0  0  0  0  0  0
   -4.5745   -3.1880    2.5718 O   0  0  0  0  0  0  0  0  0  0  0  0
   -1.5665    5.1846   -0.4590 O   0  0  0  0  0  0  0  0  0  0  0  0
    0.4463    4.0704    1.1068 O   0  0  0  0  0  0  0  0  0  0  0  0
    1.3948    2.0724   -0.6972 O   0  0  0  0  0  0  0  0  0  0  0  0
    2.2096   -1.2450    0.4586 O   0  0  0  0  0  0  0  0  0  0  0  0
   -0.3707   -2.8316   -3.3395 O   0  0  0  0  0  0  0  0  0  0  0  0
    2.0365   -1.8700   -3.5924 O   0  0  0  0  0  0  0  0  0  0  0  0
    5.2811    2.1027    2.4254 O   0  0  0  0  0  0  0  0  0  0  0  0
    7.7889    0.9058    2.3508 O   0  0  0  0  0  0  0  0  0  0  0  0
   -4.3447   -0.1401   -0.2094 C   0  0  1  0  0  0  0  0  0  0  0  0
   -5.1195    0.2118    1.0627 C   0  0  2  0  0  0  0  0  0  0  0  0
   -5.4383   -1.0471    1.8695 C   0  0  1  0  0  0  0  0  0  0  0  0
   -4.1916   -1.9100    2.0641 C   0  0  2  0  0  0  0  0  0  0  0  0
   -1.7675    3.9046    0.1427 C   0  0  1  0  0  0  0  0  0  0  0  0
   -2.6524    3.0840   -0.7937 C   0  0  2  0  0  0  0  0  0  0  0  0
   -0.4201    3.2154    0.3643 C   0  0  1  0  0  0  0  0  0  0  0  0
    0.2409    2.8638   -0.9690 C   0  0  2  0  0  0  0  0  0  0  0  0
   -3.4502   -2.1218    0.7441 C   0  0  1  0  0  0  0  0  0  0  0  0
   -3.9134    1.1088   -0.9717 C   0  0  0  0  0  0  0  0  0  0  0  0
   -0.7411    2.0851   -1.8553 C   0  0  2  0  0  0  0  0  0  0  0  0
   -0.1785    1.8386   -3.2525 C   0  0  0  0  0  0  0  0  0  0  0  0
   -1.1788   -2.5530    0.2024 C   0  0  0  0  0  0  0  0  0  0  0  0
    0.0002   -2.0179    0.7222 C   0  0  0  0  0  0  0  0  0  0  0  0
    1.0824   -1.7667   -0.1221 C   0  0  0  0  0  0  0  0  0  0  0  0
   -1.2816   -2.8278   -1.1617 C   0  0  0  0  0  0  0  0  0  0  0  0
    3.4025   -1.5155   -0.2939 C   0  0  1  0  0  0  0  0  0  0  0  0
    0.9692   -2.0225   -1.4919 C   0  0  0  0  0  0  0  0  0  0  0  0
    3.2735   -1.0050   -1.7278 C   0  0  0  0  0  0  0  0  0  0  0  0
   -0.2099   -2.5596   -2.0143 C   0  0  0  0  0  0  0  0  0  0  0  0
    2.0944   -1.6750   -2.3841 C   0  0  0  0  0  0  0  0  0  0  0  0
    4.5728   -0.8655    0.4138 C   0  0  0  0  0  0  0  0  0  0  0  0
    4.3918    0.3332    1.1029 C   0  0  0  0  0  0  0  0  0  0  0  0
    5.8306   -1.4664    0.3761 C   0  0  0  0  0  0  0  0  0  0  0  0
    5.4699    0.9318    1.7552 C   0  0  0  0  0  0  0  0  0  0  0  0
    6.9087   -0.8677    1.0281 C   0  0  0  0  0  0  0  0  0  0  0  0
    6.7283    0.3314    1.7178 C   0  0  0  0  0  0  0  0  0  0  0  0
   -4.9638   -0.7461   -0.8842 H   0  0  0  0  0  0  0  0  0  0  0  0
   -4.5505    0.9029    1.6958 H   0  0  0  0  0  0  0  0  0  0  0  0
   -6.2365   -1.6307    1.3945 H   0  0  0  0  0  0  0  0  0  0  0  0
   -3.5323   -1.4516    2.8118 H   0  0  0  0  0  0  0  0  0  0  0  0
   -2.2571    4.0727    1.1080 H   0  0  0  0  0  0  0  0  0  0  0  0
   -3.5342    3.6807   -1.0582 H   0  0  0  0  0  0  0  0  0  0  0  0
   -0.5603    2.3067    0.9632 H   0  0  0  0  0  0  0  0  0  0  0  0
    0.5812    3.7817   -1.4637 H   0  0  0  0  0  0  0  0  0  0  0  0
   -4.0365   -2.7536    0.0638 H   0  0  0  0  0  0  0  0  0  0  0  0
   -4.7873    1.6876   -1.2918 H   0  0  0  0  0  0  0  0  0  0  0  0
   -3.3533    0.7957   -1.8599 H   0  0  0  0  0  0  0  0  0  0  0  0
   -0.9496    1.1036   -1.4105 H   0  0  0  0  0  0  0  0  0  0  0  0
   -0.9202    1.3256   -3.8748 H   0  0  0  0  0  0  0  0  0  0  0  0
    0.7269    1.2259   -3.2246 H   0  0  0  0  0  0  0  0  0  0  0  0
    0.0515    2.7851   -3.7537 H   0  0  0  0  0  0  0  0  0  0  0  0
   -6.8509    0.2578    0.1497 H   0  0  0  0  0  0  0  0  0  0  0  0
   -6.7215   -0.0849    2.9855 H   0  0  0  0  0  0  0  0  0  0  0  0
   -3.7638   -3.7159    2.6725 H   0  0  0  0  0  0  0  0  0  0  0  0
   -1.2766    5.0498   -1.3770 H   0  0  0  0  0  0  0  0  0  0  0  0
    1.2956    3.6073    1.2077 H   0  0  0  0  0  0  0  0  0  0  0  0
    1.9123    2.0178   -1.5178 H   0  0  0  0  0  0  0  0  0  0  0  0
    0.0761   -1.8064    1.7859 H   0  0  0  0  0  0  0  0  0  0  0  0
    3.5551   -2.6050   -0.2834 H   0  0  0  0  0  0  0  0  0  0  0  0
   -2.2000   -3.2536   -1.5590 H   0  0  0  0  0  0  0  0  0  0  0  0
    4.1769   -1.2429   -2.3004 H   0  0  0  0  0  0  0  0  0  0  0  0
    3.1085    0.0767   -1.7653 H   0  0  0  0  0  0  0  0  0  0  0  0
    3.4186    0.8166    1.1288 H   0  0  0  0  0  0  0  0  0  0  0  0
    5.9841   -2.3995   -0.1594 H   0  0  0  0  0  0  0  0  0  0  0  0
   -1.2605   -3.1931   -3.4913 H   0  0  0  0  0  0  0  0  0  0  0  0
    7.8866   -1.3403    0.9947 H   0  0  0  0  0  0  0  0  0  0  0  0
    4.3493    2.3692    2.3435 H   0  0  0  0  0  0  0  0  0  0  0  0
    7.4839    1.7266    2.7750 H   0  0  0  0  0  0  0  0  0  0  0  0
  1 16  1  0
  1 24  1  0
  2 21  1  0
  2 25  1  0
  3 21  1  0
  3 26  1  0
  4 17  1  0
  4 58  1  0
  5 24  1  0
  5 28  1  0
  6 18  1  0
  6 59  1  0
  7 19  1  0
  7 60  1  0
  8 20  1  0
  8 61  1  0
  9 22  1  0
  9 62  1  0
 10 23  1  0
 10 63  1  0
 11 30  1  0
 11 32  1  0
 12 35  1  0
 12 71  1  0
 13 36  2  0
 14 40  1  0
 14 73  1  0
 15 42  1  0
 15 74  1  0
 16 17  1  0
 16 25  1  0
 16 43  1  6
 17 18  1  0
 17 44  1  1
 18 19  1  0
 18 45  1  6
 19 24  1  0
 19 46  1  1
 20 21  1  0
 20 22  1  0
 20 47  1  1
 21 48  1  6
 22 23  1  0
 22 49  1  1
 23 26  1  0
 23 50  1  6
 24 51  1  6
 25 52  1  0
 25 53  1  0
 26 27  1  0
 26 54  1  1
 27 55  1  0
 27 56  1  0
 27 57  1  0
 28 29  1  0
 28 31  2  0
 29 30  2  0
 29 64  1  0
 30 33  1  0
 31 35  1  0
 31 66  1  0
 32 34  1  0
 32 37  1  0
 32 65  1  6
 33 35  2  0
 33 36  1  0
 34 36  1  0
 34 67  1  0
 34 68  1  0
 37 38  2  0
 37 39  1  0
 38 40  1  0
 38 69  1  0
 39 41  2  0
 39 70  1  0
 40 42  2  0
 41 42  1  0
 41 72  1  0
M  END
>  <conformerSource>
pubchem

$$$$
