gamma-terpinene
     RDKit          3D

 26 26  0  0  0  0  0  0  0  0999 V2000
   -2.2159    0.3610   -0.0016 C   0  0  0  0  0  0  0  0  0  0  0  0
   -0.7285    0.1654   -0.0003 C   0  0  0  0  0  0  0  0  0  0  0  0
    0.1065    1.4208   -0.0037 C   0  0  0  0  0  0  0  0  0  0  0  0
    1.3105   -1.2990    0.0044 C   0  0  0  0  0  0  0  0  0  0  0  0
   -0.1714   -1.0576    0.0032 C   0  0  0  0  0  0  0  0  0  0  0  0
    2.1454   -0.0436    0.0011 C   0  0  0  0  0  0  0  0  0  0  0  0
    1.5883    1.1792   -0.0025 C   0  0  0  0  0  0  0  0  0  0  0  0
   -2.8273   -0.2506   -1.2577 C   0  0  0  0  0  0  0  0  0  0  0  0
   -2.8405   -0.2364    1.2559 C   0  0  0  0  0  0  0  0  0  0  0  0
    3.6329   -0.2392    0.0013 C   0  0  0  0  0  0  0  0  0  0  0  0
   -2.4421    1.4351   -0.0088 H   0  0  0  0  0  0  0  0  0  0  0  0
   -0.1440    2.0204    0.8797 H   0  0  0  0  0  0  0  0  0  0  0  0
   -0.1433    2.0154   -0.8906 H   0  0  0  0  0  0  0  0  0  0  0  0
    1.5615   -1.8937    0.8908 H   0  0  0  0  0  0  0  0  0  0  0  0
    1.5620   -1.8987   -0.8784 H   0  0  0  0  0  0  0  0  0  0  0  0
   -0.7950   -1.9474    0.0062 H   0  0  0  0  0  0  0  0  0  0  0  0
    2.2221    2.0623   -0.0050 H   0  0  0  0  0  0  0  0  0  0  0  0
   -2.7293   -1.3414   -1.2846 H   0  0  0  0  0  0  0  0  0  0  0  0
   -2.3609    0.1544   -2.1630 H   0  0  0  0  0  0  0  0  0  0  0  0
   -3.8975   -0.0203   -1.3091 H   0  0  0  0  0  0  0  0  0  0  0  0
   -2.3832    0.1807    2.1603 H   0  0  0  0  0  0  0  0  0  0  0  0
   -2.7395   -1.3265    1.2967 H   0  0  0  0  0  0  0  0  0  0  0  0
   -3.9115   -0.0076    1.2932 H   0  0  0  0  0  0  0  0  0  0  0  0
    3.9422   -0.7965    0.8915 H   0  0  0  0  0  0  0  0  0  0  0  0
    4.1747    0.7124   -0.0015 H   0  0  0  0  0  0  0  0  0  0  0  0
    3.9417   -0.8015   -0.8859 H   0  0  0  0  0  0  0  0  0  0  0  0
  1  2  1  0
  1  8  1  0
  1  9  1  0
  1 11  1  0
  2  3  1  0
  2  5  2  0
  3  7  1  0
  3 12  1  0
  3 13  1  0
  4  5  1  0
  4  6  1  0
  4 14  1  0
  4 15  1  0
  5 16  1  0
  6  7  2  0
  6 10  1  0
  7 17  1  0
  8 18  1  0
  8 19  1  0
  8 20  1  0
  9 21  1  0
  9 22  1  0
  9 23  1  0
 10 24  1  0
 10 25  1  0
 10 26  1  0
M  END
>  <conformerSource>
pubchem

$$$$
