herniarin
     RDKit          3D

 21 22  0  0  0  0  0  0  0  0999 V2000
   -1.2730    1.2165    0.0005 O   0  0  0  0  0  0  0  0  0  0  0  0
    3.4332    0.3551   -0.0002 O   0  0  0  0  0  0  0  0  0  0  0  0
   -3.5291    1.6104   -0.0007 O   0  0  0  0  0  0  0  0  0  0  0  0
   -0.4732   -1.0823    0.0001 C   0  0  0  0  0  0  0  0  0  0  0  0
   -0.2141    0.2857    0.0002 C   0  0  0  0  0  0  0  0  0  0  0  0
    1.0865    0.7854    0.0001 C   0  0  0  0  0  0  0  0  0  0  0  0
    0.6024   -1.9730   -0.0003 C   0  0  0  0  0  0  0  0  0  0  0  0
    2.1537   -0.1101    0.0000 C   0  0  0  0  0  0  0  0  0  0  0  0
    1.9128   -1.4860   -0.0003 C   0  0  0  0  0  0  0  0  0  0  0  0
   -1.8541   -1.5340    0.0003 C   0  0  0  0  0  0  0  0  0  0  0  0
   -2.8515   -0.6461    0.0001 C   0  0  0  0  0  0  0  0  0  0  0  0
   -2.6025    0.8074    0.0000 C   0  0  0  0  0  0  0  0  0  0  0  0
    3.6090    1.7709    0.0001 C   0  0  0  0  0  0  0  0  0  0  0  0
    1.2019    1.8635    0.0002 H   0  0  0  0  0  0  0  0  0  0  0  0
    0.4365   -3.0475   -0.0005 H   0  0  0  0  0  0  0  0  0  0  0  0
    2.7439   -2.1864   -0.0005 H   0  0  0  0  0  0  0  0  0  0  0  0
   -2.0600   -2.5987    0.0004 H   0  0  0  0  0  0  0  0  0  0  0  0
   -3.8848   -0.9756    0.0001 H   0  0  0  0  0  0  0  0  0  0  0  0
    4.6870    1.9628    0.0000 H   0  0  0  0  0  0  0  0  0  0  0  0
    3.2033    2.2266    0.9097 H   0  0  0  0  0  0  0  0  0  0  0  0
    3.2031    2.2271   -0.9093 H   0  0  0  0  0  0  0  0  0  0  0  0
  1  5  1  0
  1 12  1  0
  2  8  1  0
  2 13  1  0
  3 12  2  0
  4  5  1  0
  4  7  2  0
  4 10  1  0
  5  6  2  0
  6  8  1  0
  6 14  1  0
  7  9  1  0
  7 15  1  0
  8  9  2  0
  9 16  1  0
 10 11  2  0
 10 17  1  0
 11 12  1  0
 11 18  1  0
 13 19  1  0
 13 20  1  0
 13 21  1  0
M  END
>  <conformerSource>
pubchem

$$$$
