luteolin-7-glucoside
     RDKit          3D

 52 55  0  0  0  0  0  0  0  0999 V2000
   -3.6328    0.0537   -0.5640 O   0  0  0  0  0  0  0  0  0  0  0  0
   -2.8235    0.7781    1.5010 O   0  0  0  0  0  0  0  0  0  0  0  0
   -6.8050   -1.8628    1.2056 O   0  0  0  0  0  0  0  0  0  0  0  0
   -6.0690   -2.5108   -1.5137 O   0  0  0  0  0  0  0  0  0  0  0  0
   -4.4146   -1.1778    2.7859 O   0  0  0  0  0  0  0  0  0  0  0  0
   -2.9686   -0.1910   -3.2201 O   0  0  0  0  0  0  0  0  0  0  0  0
    1.7447    0.0313    0.4373 O   0  0  0  0  0  0  0  0  0  0  0  0
   -0.2793    4.3783   -0.2707 O   0  0  0  0  0  0  0  0  0  0  0  0
    2.2353    3.8740   -0.8239 O   0  0  0  0  0  0  0  0  0  0  0  0
    7.6665   -0.7218    0.3213 O   0  0  0  0  0  0  0  0  0  0  0  0
    7.0314   -3.4054   -0.0207 O   0  0  0  0  0  0  0  0  0  0  0  0
   -5.4749   -1.7541    0.6962 C   0  0  1  0  0  0  0  0  0  0  0  0
   -5.5645   -1.3935   -0.7867 C   0  0  1  0  0  0  0  0  0  0  0  0
   -4.7153   -0.6842    1.4808 C   0  0  2  0  0  0  0  0  0  0  0  0
   -4.1883   -1.0117   -1.3370 C   0  0  1  0  0  0  0  0  0  0  0  0
   -3.4004   -0.3184    0.7925 C   0  0  1  0  0  0  0  0  0  0  0  0
   -4.2708   -0.5356   -2.7839 C   0  0  0  0  0  0  0  0  0  0  0  0
   -1.6370    1.2546    1.0273 C   0  0  0  0  0  0  0  0  0  0  0  0
   -0.5254    0.4141    0.9620 C   0  0  0  0  0  0  0  0  0  0  0  0
   -1.5367    2.5823    0.6091 C   0  0  0  0  0  0  0  0  0  0  0  0
    0.6873    0.9043    0.4772 C   0  0  0  0  0  0  0  0  0  0  0  0
    0.7856    2.2308    0.0603 C   0  0  0  0  0  0  0  0  0  0  0  0
   -0.3248    3.0755    0.1241 C   0  0  0  0  0  0  0  0  0  0  0  0
    2.0768    2.7220   -0.4448 C   0  0  0  0  0  0  0  0  0  0  0  0
    2.9611    0.4888   -0.0462 C   0  0  0  0  0  0  0  0  0  0  0  0
    3.1825    1.7433   -0.4698 C   0  0  0  0  0  0  0  0  0  0  0  0
    4.0306   -0.5296   -0.0397 C   0  0  0  0  0  0  0  0  0  0  0  0
    5.3622   -0.1475    0.1399 C   0  0  0  0  0  0  0  0  0  0  0  0
    3.7152   -1.8795   -0.2128 C   0  0  0  0  0  0  0  0  0  0  0  0
    6.3725   -1.1095    0.1466 C   0  0  0  0  0  0  0  0  0  0  0  0
    4.7254   -2.8414   -0.2064 C   0  0  0  0  0  0  0  0  0  0  0  0
    6.0540   -2.4564   -0.0266 C   0  0  0  0  0  0  0  0  0  0  0  0
   -5.0091   -2.7375    0.8344 H   0  0  0  0  0  0  0  0  0  0  0  0
   -6.2750   -0.5684   -0.9188 H   0  0  0  0  0  0  0  0  0  0  0  0
   -5.3422    0.2053    1.6149 H   0  0  0  0  0  0  0  0  0  0  0  0
   -3.4979   -1.8654   -1.3002 H   0  0  0  0  0  0  0  0  0  0  0  0
   -2.7155   -1.1757    0.8314 H   0  0  0  0  0  0  0  0  0  0  0  0
   -4.9009    0.3551   -2.8773 H   0  0  0  0  0  0  0  0  0  0  0  0
   -4.6609   -1.3146   -3.4452 H   0  0  0  0  0  0  0  0  0  0  0  0
   -7.2642   -2.5390    0.6784 H   0  0  0  0  0  0  0  0  0  0  0  0
   -5.4412   -3.2458   -1.4085 H   0  0  0  0  0  0  0  0  0  0  0  0
   -3.8591   -1.9700    2.6885 H   0  0  0  0  0  0  0  0  0  0  0  0
   -2.6293    0.4957   -2.6208 H   0  0  0  0  0  0  0  0  0  0  0  0
   -0.5869   -0.6164    1.3016 H   0  0  0  0  0  0  0  0  0  0  0  0
   -2.4068    3.2324    0.6619 H   0  0  0  0  0  0  0  0  0  0  0  0
    4.1306    2.0951   -0.8592 H   0  0  0  0  0  0  0  0  0  0  0  0
    0.6072    4.6065   -0.5896 H   0  0  0  0  0  0  0  0  0  0  0  0
    5.6427    0.8909    0.2988 H   0  0  0  0  0  0  0  0  0  0  0  0
    2.6892   -2.2068   -0.3631 H   0  0  0  0  0  0  0  0  0  0  0  0
    4.4636   -3.8871   -0.3442 H   0  0  0  0  0  0  0  0  0  0  0  0
    8.2294   -1.5150    0.2981 H   0  0  0  0  0  0  0  0  0  0  0  0
    6.6253   -4.2791   -0.1538 H   0  0  0  0  0  0  0  0  0  0  0  0
  1 15  1  0
  1 16  1  0
  2 16  1  0
  2 18  1  0
  3 12  1  0
  3 40  1  0
  4 13  1  0
  4 41  1  0
  5 14  1  0
  5 42  1  0
  6 17  1  0
  6 43  1  0
  7 21  1  0
  7 25  1  0
  8 23  1  0
  8 47  1  0
  9 24  2  0
 10 30  1  0
 10 51  1  0
 11 32  1  0
 11 52  1  0
 12 13  1  0
 12 14  1  0
 12 33  1  6
 13 15  1  0
 13 34  1  1
 14 16  1  0
 14 35  1  1
 15 17  1  0
 15 36  1  6
 16 37  1  6
 17 38  1  0
 17 39  1  0
 18 19  1  0
 18 20  2  0
 19 21  2  0
 19 44  1  0
 20 23  1  0
 20 45  1  0
 21 22  1  0
 22 23  2  0
 22 24  1  0
 24 26  1  0
 25 26  2  0
 25 27  1  0
 26 46  1  0
 27 28  2  0
 27 29  1  0
 28 30  1  0
 28 48  1  0
 29 31  2  0
 29 49  1  0
 30 32  2  0
 31 32  1  0
 31 50  1  0
M  END
>  <conformerSource>
pubchem

$$$$
