matricin
     RDKit          3D

 44 46  0  0  0  0  0  0  0  0999 V2000
    1.3436    2.0687    0.0971 O   0  0  0  0  0  0  0  0  0  0  0  0
   -2.9097    0.1622   -0.0842 O   0  0  0  0  0  0  0  0  0  0  0  0
    3.8902    0.3905   -1.0264 O   0  0  0  0  0  0  0  0  0  0  0  0
    0.5506    4.2138    0.1813 O   0  0  0  0  0  0  0  0  0  0  0  0
   -3.7809   -1.5518    1.1963 O   0  0  0  0  0  0  0  0  0  0  0  0
   -0.6299    0.9154   -0.2628 C   0  0  1  0  0  0  0  0  0  0  0  0
    0.7778    0.7622    0.2914 C   0  0  1  0  0  0  0  0  0  0  0  0
    1.6360   -0.2995   -0.4057 C   0  0  1  0  0  0  0  0  0  0  0  0
   -1.5587   -0.2084    0.1927 C   0  0  2  0  0  0  0  0  0  0  0  0
   -0.9902    2.3225    0.2263 C   0  0  1  0  0  0  0  0  0  0  0  0
    3.1497   -0.2642    0.0002 C   0  0  1  0  0  0  0  0  0  0  0  0
    1.2130   -1.7514   -0.1856 C   0  0  0  0  0  0  0  0  0  0  0  0
   -1.2841   -1.5183   -0.5513 C   0  0  0  0  0  0  0  0  0  0  0  0
   -0.0263   -2.2867   -0.2044 C   0  0  0  0  0  0  0  0  0  0  0  0
    0.3541    3.0086    0.1655 C   0  0  0  0  0  0  0  0  0  0  0  0
    3.5150   -1.7156    0.0282 C   0  0  0  0  0  0  0  0  0  0  0  0
    2.4414   -2.5036   -0.0232 C   0  0  0  0  0  0  0  0  0  0  0  0
   -2.0001    3.0517   -0.6483 C   0  0  0  0  0  0  0  0  0  0  0  0
    3.5032    0.3594    1.3531 C   0  0  0  0  0  0  0  0  0  0  0  0
   -0.3043   -3.7553    0.0377 C   0  0  0  0  0  0  0  0  0  0  0  0
   -3.8565   -0.7541    0.2717 C   0  0  0  0  0  0  0  0  0  0  0  0
   -5.0338   -0.6461   -0.6495 C   0  0  0  0  0  0  0  0  0  0  0  0
   -0.5998    0.9456   -1.3621 H   0  0  0  0  0  0  0  0  0  0  0  0
    0.7515    0.5735    1.3733 H   0  0  0  0  0  0  0  0  0  0  0  0
    1.5810   -0.1076   -1.4889 H   0  0  0  0  0  0  0  0  0  0  0  0
   -1.4612   -0.3519    1.2770 H   0  0  0  0  0  0  0  0  0  0  0  0
   -1.3170    2.3087    1.2726 H   0  0  0  0  0  0  0  0  0  0  0  0
   -1.2663   -1.3189   -1.6332 H   0  0  0  0  0  0  0  0  0  0  0  0
   -2.1246   -2.2129   -0.4526 H   0  0  0  0  0  0  0  0  0  0  0  0
    4.5271   -2.0816    0.1348 H   0  0  0  0  0  0  0  0  0  0  0  0
    2.5081   -3.5793    0.0234 H   0  0  0  0  0  0  0  0  0  0  0  0
   -2.1311    4.0842   -0.3058 H   0  0  0  0  0  0  0  0  0  0  0  0
   -1.6673    3.0978   -1.6913 H   0  0  0  0  0  0  0  0  0  0  0  0
   -2.9819    2.5729   -0.6239 H   0  0  0  0  0  0  0  0  0  0  0  0
    2.9159   -0.0673    2.1730 H   0  0  0  0  0  0  0  0  0  0  0  0
    4.5644    0.2005    1.5837 H   0  0  0  0  0  0  0  0  0  0  0  0
    3.3703    1.4453    1.3473 H   0  0  0  0  0  0  0  0  0  0  0  0
   -0.6821   -4.2217   -0.8783 H   0  0  0  0  0  0  0  0  0  0  0  0
   -1.0626   -3.8663    0.8213 H   0  0  0  0  0  0  0  0  0  0  0  0
    0.5636   -4.3282    0.3690 H   0  0  0  0  0  0  0  0  0  0  0  0
    3.7794   -0.1072   -1.8547 H   0  0  0  0  0  0  0  0  0  0  0  0
   -4.7216   -0.8583   -1.6751 H   0  0  0  0  0  0  0  0  0  0  0  0
   -5.4695    0.3537   -0.5782 H   0  0  0  0  0  0  0  0  0  0  0  0
   -5.7916   -1.3784   -0.3570 H   0  0  0  0  0  0  0  0  0  0  0  0
  1  7  1  0
  1 15  1  0
  2  9  1  0
  2 21  1  0
 11  3  1  6
  3 41  1  0
  4 15  2  0
  5 21  2  0
  6  7  1  0
  6  9  1  0
  6 10  1  0
  6 23  1  6
  7  8  1  0
  7 24  1  1
  8 11  1  0
  8 12  1  0
  8 25  1  6
  9 13  1  0
  9 26  1  1
 10 15  1  0
 10 18  1  0
 10 27  1  1
 11 16  1  0
 11 19  1  0
 12 14  2  0
 12 17  1  0
 13 14  1  0
 13 28  1  0
 13 29  1  0
 14 20  1  0
 16 17  2  0
 16 30  1  0
 17 31  1  0
 18 32  1  0
 18 33  1  0
 18 34  1  0
 19 35  1  0
 19 36  1  0
 19 37  1  0
 20 38  1  0
 20 39  1  0
 20 40  1  0
 21 22  1  0
 22 42  1  0
 22 43  1  0
 22 44  1  0
M  END
>  <conformerSource>
pubchem

$$$$
