menthofuran
     RDKit          3D

 25 26  0  0  0  0  0  0  0  0999 V2000
    1.0437   -1.7724    0.0545 O   0  0  0  0  0  0  0  0  0  0  0  0
   -2.1990    0.0459   -0.3384 C   0  0  1  0  0  0  0  0  0  0  0  0
   -1.6703    1.3478    0.3244 C   0  0  0  0  0  0  0  0  0  0  0  0
   -1.3449   -1.1890    0.0538 C   0  0  0  0  0  0  0  0  0  0  0  0
   -0.2120    1.6677   -0.0751 C   0  0  0  0  0  0  0  0  0  0  0  0
    0.6293    0.4460   -0.0200 C   0  0  0  0  0  0  0  0  0  0  0  0
    0.0855   -0.8173    0.0179 C   0  0  0  0  0  0  0  0  0  0  0  0
   -3.6654   -0.1864    0.0189 C   0  0  0  0  0  0  0  0  0  0  0  0
    2.0300    0.2600   -0.0146 C   0  0  0  0  0  0  0  0  0  0  0  0
    2.2316   -1.1043    0.0320 C   0  0  0  0  0  0  0  0  0  0  0  0
    3.0715    1.3020   -0.0535 C   0  0  0  0  0  0  0  0  0  0  0  0
   -2.1329    0.1776   -1.4276 H   0  0  0  0  0  0  0  0  0  0  0  0
   -1.7285    1.2421    1.4161 H   0  0  0  0  0  0  0  0  0  0  0  0
   -2.3081    2.1977    0.0538 H   0  0  0  0  0  0  0  0  0  0  0  0
   -1.5484   -2.0193   -0.6313 H   0  0  0  0  0  0  0  0  0  0  0  0
   -1.5994   -1.5218    1.0672 H   0  0  0  0  0  0  0  0  0  0  0  0
    0.1871    2.4443    0.5865 H   0  0  0  0  0  0  0  0  0  0  0  0
   -0.1960    2.0641   -1.0975 H   0  0  0  0  0  0  0  0  0  0  0  0
   -3.7975   -0.3051    1.0996 H   0  0  0  0  0  0  0  0  0  0  0  0
   -4.2824    0.6578   -0.3065 H   0  0  0  0  0  0  0  0  0  0  0  0
   -4.0457   -1.0887   -0.4713 H   0  0  0  0  0  0  0  0  0  0  0  0
    3.1132   -1.7287    0.0530 H   0  0  0  0  0  0  0  0  0  0  0  0
    3.0231    1.9266    0.8443 H   0  0  0  0  0  0  0  0  0  0  0  0
    4.0746    0.8663   -0.1072 H   0  0  0  0  0  0  0  0  0  0  0  0
    2.9389    1.9472   -0.9281 H   0  0  0  0  0  0  0  0  0  0  0  0
  1  7  1  0
  1 10  1  0
  2  3  1  0
  2  4  1  0
  2  8  1  0
  2 12  1  6
  3  5  1  0
  3 13  1  0
  3 14  1  0
  4  7  1  0
  4 15  1  0
  4 16  1  0
  5  6  1  0
  5 17  1  0
  5 18  1  0
  6  7  2  0
  6  9  1  0
  8 19  1  0
  8 20  1  0
  8 21  1  0
  9 10  2  0
  9 11  1  0
 10 22  1  0
 11 23  1  0
 11 24  1  0
 11 25  1  0
M  END
>  <conformerSource>
pubchem

$$$$
