methyl-cinnamate
     RDKit          3D

 22 22  0  0  0  0  0  0  0  0999 V2000
    3.4449    0.8501    0.2024 O   0  0  0  0  0  0  0  0  0  0  0  0
    2.9744   -1.3598   -0.2798 O   0  0  0  0  0  0  0  0  0  0  0  0
   -1.2034   -0.2515   -0.0619 C   0  0  0  0  0  0  0  0  0  0  0  0
   -1.6034    1.0774   -0.2029 C   0  0  0  0  0  0  0  0  0  0  0  0
   -2.1567   -1.2483    0.1472 C   0  0  0  0  0  0  0  0  0  0  0  0
    0.2075   -0.5977   -0.1329 C   0  0  0  0  0  0  0  0  0  0  0  0
   -2.9564    1.4097   -0.1346 C   0  0  0  0  0  0  0  0  0  0  0  0
   -3.5097   -0.9159    0.2154 C   0  0  0  0  0  0  0  0  0  0  0  0
   -3.9095    0.4130    0.0744 C   0  0  0  0  0  0  0  0  0  0  0  0
    1.2325    0.2637    0.0519 C   0  0  0  0  0  0  0  0  0  0  0  0
    2.6312   -0.2140   -0.0357 C   0  0  0  0  0  0  0  0  0  0  0  0
    4.8486    0.5731    0.1566 C   0  0  0  0  0  0  0  0  0  0  0  0
   -0.8997    1.8838   -0.3870 H   0  0  0  0  0  0  0  0  0  0  0  0
   -1.8642   -2.2894    0.2607 H   0  0  0  0  0  0  0  0  0  0  0  0
    0.4220   -1.6437   -0.3416 H   0  0  0  0  0  0  0  0  0  0  0  0
   -3.2688    2.4437   -0.2489 H   0  0  0  0  0  0  0  0  0  0  0  0
   -4.2521   -1.6917    0.3782 H   0  0  0  0  0  0  0  0  0  0  0  0
   -4.9631    0.6715    0.1265 H   0  0  0  0  0  0  0  0  0  0  0  0
    1.0851    1.3114    0.2883 H   0  0  0  0  0  0  0  0  0  0  0  0
    5.1319    0.2169   -0.8385 H   0  0  0  0  0  0  0  0  0  0  0  0
    5.1143   -0.1631    0.9211 H   0  0  0  0  0  0  0  0  0  0  0  0
    5.3855    1.5029    0.3627 H   0  0  0  0  0  0  0  0  0  0  0  0
  1 11  1  0
  1 12  1  0
  2 11  2  0
  3  4  2  0
  3  5  1  0
  3  6  1  0
  4  7  1  0
  4 13  1  0
  5  8  2  0
  5 14  1  0
  6 10  2  0
  6 15  1  0
  7  9  2  0
  7 16  1  0
  8  9  1  0
  8 17  1  0
  9 18  1  0
 10 11  1  0
 10 19  1  0
 12 20  1  0
 12 21  1  0
 12 22  1  0
M  END
>  <conformerSource>
pubchem

$$$$
