pulegone
     RDKit          3D

 27 27  0  0  0  0  0  0  0  0999 V2000
    0.6224    2.1079   -0.4721 O   0  0  0  0  0  0  0  0  0  0  0  0
   -2.2243   -0.0994   -0.1985 C   0  0  2  0  0  0  0  0  0  0  0  0
   -1.4980   -1.4130    0.1179 C   0  0  0  0  0  0  0  0  0  0  0  0
   -1.4138    1.1027    0.2950 C   0  0  0  0  0  0  0  0  0  0  0  0
   -0.1258   -1.4512   -0.5520 C   0  0  0  0  0  0  0  0  0  0  0  0
    0.7010   -0.2537   -0.1984 C   0  0  0  0  0  0  0  0  0  0  0  0
    0.0228    1.0745   -0.1835 C   0  0  0  0  0  0  0  0  0  0  0  0
   -3.6212   -0.0926    0.4198 C   0  0  0  0  0  0  0  0  0  0  0  0
    1.9986   -0.3049    0.1279 C   0  0  0  0  0  0  0  0  0  0  0  0
    2.7650   -1.5954    0.1410 C   0  0  0  0  0  0  0  0  0  0  0  0
    2.7733    0.9251    0.5029 C   0  0  0  0  0  0  0  0  0  0  0  0
   -2.3347   -0.0214   -1.2886 H   0  0  0  0  0  0  0  0  0  0  0  0
   -2.0929   -2.2640   -0.2354 H   0  0  0  0  0  0  0  0  0  0  0  0
   -1.3858   -1.5303    1.2038 H   0  0  0  0  0  0  0  0  0  0  0  0
   -1.3965    1.1463    1.3906 H   0  0  0  0  0  0  0  0  0  0  0  0
   -1.8774    2.0268   -0.0699 H   0  0  0  0  0  0  0  0  0  0  0  0
   -0.2525   -1.4809   -1.6415 H   0  0  0  0  0  0  0  0  0  0  0  0
    0.3401   -2.3964   -0.2604 H   0  0  0  0  0  0  0  0  0  0  0  0
   -3.5746   -0.1776    1.5108 H   0  0  0  0  0  0  0  0  0  0  0  0
   -4.1499    0.8344    0.1741 H   0  0  0  0  0  0  0  0  0  0  0  0
   -4.2177   -0.9290    0.0404 H   0  0  0  0  0  0  0  0  0  0  0  0
    3.8056   -1.4184   -0.1556 H   0  0  0  0  0  0  0  0  0  0  0  0
    2.7707   -2.0242    1.1479 H   0  0  0  0  0  0  0  0  0  0  0  0
    2.3871   -2.3392   -0.5652 H   0  0  0  0  0  0  0  0  0  0  0  0
    3.6899    0.6433    1.0358 H   0  0  0  0  0  0  0  0  0  0  0  0
    3.0845    1.4830   -0.3860 H   0  0  0  0  0  0  0  0  0  0  0  0
    2.2346    1.5742    1.2005 H   0  0  0  0  0  0  0  0  0  0  0  0
  1  7  2  0
  2  3  1  0
  2  4  1  0
  2  8  1  0
  2 12  1  6
  3  5  1  0
  3 13  1  0
  3 14  1  0
  4  7  1  0
  4 15  1  0
  4 16  1  0
  5  6  1  0
  5 17  1  0
  5 18  1  0
  6  7  1  0
  6  9  2  0
  8 19  1  0
  8 20  1  0
  8 21  1  0
  9 10  1  0
  9 11  1  0
 10 22  1  0
 10 23  1  0
 10 24  1  0
 11 25  1  0
 11 26  1  0
 11 27  1  0
M  END
>  <conformerSource>
pubchem

$$$$
