umbelliferone
     RDKit          3D

 18 19  0  0  0  0  0  0  0  0999 V2000
   -1.1951    1.1738   -0.0006 O   0  0  0  0  0  0  0  0  0  0  0  0
    3.5888    1.1462    0.0005 O   0  0  0  0  0  0  0  0  0  0  0  0
   -3.4855    1.1684    0.0010 O   0  0  0  0  0  0  0  0  0  0  0  0
   -0.0069   -0.9506   -0.0001 C   0  0  0  0  0  0  0  0  0  0  0  0
    0.0098    0.4417   -0.0003 C   0  0  0  0  0  0  0  0  0  0  0  0
    1.2077   -1.6402    0.0000 C   0  0  0  0  0  0  0  0  0  0  0  0
    1.2035    1.1605   -0.0003 C   0  0  0  0  0  0  0  0  0  0  0  0
   -1.2880   -1.6360    0.0001 C   0  0  0  0  0  0  0  0  0  0  0  0
    2.4105    0.4648    0.0001 C   0  0  0  0  0  0  0  0  0  0  0  0
    2.4130   -0.9321    0.0001 C   0  0  0  0  0  0  0  0  0  0  0  0
   -2.4248   -0.9355    0.0001 C   0  0  0  0  0  0  0  0  0  0  0  0
   -2.4331    0.5392   -0.0006 C   0  0  0  0  0  0  0  0  0  0  0  0
    1.2315   -2.7271    0.0002 H   0  0  0  0  0  0  0  0  0  0  0  0
    1.1937    2.2465   -0.0004 H   0  0  0  0  0  0  0  0  0  0  0  0
   -1.3051   -2.7203    0.0005 H   0  0  0  0  0  0  0  0  0  0  0  0
    3.3500   -1.4832    0.0003 H   0  0  0  0  0  0  0  0  0  0  0  0
   -3.3848   -1.4401    0.0004 H   0  0  0  0  0  0  0  0  0  0  0  0
    4.3223    0.5073    0.0008 H   0  0  0  0  0  0  0  0  0  0  0  0
  1  5  1  0
  1 12  1  0
  2  9  1  0
  2 18  1  0
  3 12  2  0
  4  5  1  0
  4  6  2  0
  4  8  1  0
  5  7  2  0
  6 10  1  0
  6 13  1  0
  7  9  1  0
  7 14  1  0
  8 11  2  0
  8 15  1  0
  9 10  2  0
 10 16  1  0
 11 12  1  0
 11 17  1  0
M  END
>  <conformerSource>
pubchem

$$$$
