wogonoside
     RDKit          3D

 53 56  0  0  0  0  0  0  0  0999 V2000
   -2.8589    0.4638   -0.3399 O   0  0  0  0  0  0  0  0  0  0  0  0
   -1.9908   -0.6711    1.5042 O   0  0  0  0  0  0  0  0  0  0  0  0
   -6.5040    0.9335    1.4946 O   0  0  0  0  0  0  0  0  0  0  0  0
   -4.6182   -1.1209    2.4415 O   0  0  0  0  0  0  0  0  0  0  0  0
   -6.2793    1.2251   -1.3886 O   0  0  0  0  0  0  0  0  0  0  0  0
   -4.3654    1.9156   -3.1594 O   0  0  0  0  0  0  0  0  0  0  0  0
   -2.3472    2.2017   -2.1393 O   0  0  0  0  0  0  0  0  0  0  0  0
    2.5674    0.1554    0.4201 O   0  0  0  0  0  0  0  0  0  0  0  0
    0.2652    0.9292    1.6226 O   0  0  0  0  0  0  0  0  0  0  0  0
    0.3579   -3.8959   -1.0637 O   0  0  0  0  0  0  0  0  0  0  0  0
    2.8659   -3.3598   -1.6179 O   0  0  0  0  0  0  0  0  0  0  0  0
   -5.5339    0.2623    0.6892 C   0  0  2  0  0  0  0  0  0  0  0  0
   -4.3035   -0.0627    1.5367 C   0  0  2  0  0  0  0  0  0  0  0  0
   -5.1779    1.1772   -0.4831 C   0  0  1  0  0  0  0  0  0  0  0  0
   -3.1322   -0.5118    0.6626 C   0  0  1  0  0  0  0  0  0  0  0  0
   -3.9561    0.6518   -1.2264 C   0  0  1  0  0  0  0  0  0  0  0  0
   -3.4436    1.6654   -2.1977 C   0  0  0  0  0  0  0  0  0  0  0  0
   -0.8337   -1.0636    0.8969 C   0  0  0  0  0  0  0  0  0  0  0  0
    0.3054   -0.2601    0.9547 C   0  0  0  0  0  0  0  0  0  0  0  0
   -0.7983   -2.2809    0.2153 C   0  0  0  0  0  0  0  0  0  0  0  0
    1.4807   -0.6770    0.3294 C   0  0  0  0  0  0  0  0  0  0  0  0
    1.5141   -1.8931   -0.3509 C   0  0  0  0  0  0  0  0  0  0  0  0
    0.3758   -2.7004   -0.4113 C   0  0  0  0  0  0  0  0  0  0  0  0
    2.7659   -2.3074   -1.0026 C   0  0  0  0  0  0  0  0  0  0  0  0
    3.7514   -0.2359   -0.1865 C   0  0  0  0  0  0  0  0  0  0  0  0
    3.9065   -1.3781   -0.8746 C   0  0  0  0  0  0  0  0  0  0  0  0
    4.8533    0.7353   -0.0333 C   0  0  0  0  0  0  0  0  0  0  0  0
    0.6060    0.9047    3.0066 C   0  0  0  0  0  0  0  0  0  0  0  0
    5.8259    0.8562   -1.0292 C   0  0  0  0  0  0  0  0  0  0  0  0
    4.9283    1.5381    1.1077 C   0  0  0  0  0  0  0  0  0  0  0  0
    6.8665    1.7738   -0.8850 C   0  0  0  0  0  0  0  0  0  0  0  0
    5.9688    2.4558    1.2519 C   0  0  0  0  0  0  0  0  0  0  0  0
    6.9380    2.5736    0.2555 C   0  0  0  0  0  0  0  0  0  0  0  0
   -6.0117   -0.6576    0.3296 H   0  0  0  0  0  0  0  0  0  0  0  0
   -4.0145    0.8054    2.1424 H   0  0  0  0  0  0  0  0  0  0  0  0
   -5.0113    2.1991   -0.1208 H   0  0  0  0  0  0  0  0  0  0  0  0
   -3.3777   -1.4738    0.1938 H   0  0  0  0  0  0  0  0  0  0  0  0
   -4.1513   -0.2781   -1.7749 H   0  0  0  0  0  0  0  0  0  0  0  0
   -6.7907    0.3155    2.1877 H   0  0  0  0  0  0  0  0  0  0  0  0
   -5.2995   -0.7938    3.0526 H   0  0  0  0  0  0  0  0  0  0  0  0
   -6.4352    0.3250   -1.7220 H   0  0  0  0  0  0  0  0  0  0  0  0
   -1.6748   -2.9230    0.1811 H   0  0  0  0  0  0  0  0  0  0  0  0
   -4.0482    2.5808   -3.8069 H   0  0  0  0  0  0  0  0  0  0  0  0
    4.8364   -1.6873   -1.3372 H   0  0  0  0  0  0  0  0  0  0  0  0
    1.2244   -4.0822   -1.4562 H   0  0  0  0  0  0  0  0  0  0  0  0
    1.6320    0.5495    3.1456 H   0  0  0  0  0  0  0  0  0  0  0  0
    0.5343    1.9244    3.3949 H   0  0  0  0  0  0  0  0  0  0  0  0
   -0.0898    0.2691    3.5634 H   0  0  0  0  0  0  0  0  0  0  0  0
    5.7937    0.2677   -1.9422 H   0  0  0  0  0  0  0  0  0  0  0  0
    4.1912    1.4616    1.9034 H   0  0  0  0  0  0  0  0  0  0  0  0
    7.6185    1.8696   -1.6627 H   0  0  0  0  0  0  0  0  0  0  0  0
    6.0256    3.0777    2.1405 H   0  0  0  0  0  0  0  0  0  0  0  0
    7.7476    3.2887    0.3675 H   0  0  0  0  0  0  0  0  0  0  0  0
  1 15  1  0
  1 16  1  0
  2 15  1  0
  2 18  1  0
  3 12  1  0
  3 39  1  0
  4 13  1  0
  4 40  1  0
  5 14  1  0
  5 41  1  0
  6 17  1  0
  6 43  1  0
  7 17  2  0
  8 21  1  0
  8 25  1  0
  9 19  1  0
  9 28  1  0
 10 23  1  0
 10 45  1  0
 11 24  2  0
 12 13  1  0
 12 14  1  0
 12 34  1  6
 13 15  1  0
 13 35  1  1
 14 16  1  0
 14 36  1  1
 15 37  1  6
 16 17  1  0
 16 38  1  6
 18 19  1  0
 18 20  2  0
 19 21  2  0
 20 23  1  0
 20 42  1  0
 21 22  1  0
 22 23  2  0
 22 24  1  0
 24 26  1  0
 25 26  2  0
 25 27  1  0
 26 44  1  0
 27 29  2  0
 27 30  1  0
 28 46  1  0
 28 47  1  0
 28 48  1  0
 29 31  1  0
 29 49  1  0
 30 32  2  0
 30 50  1  0
 31 33  2  0
 31 51  1  0
 32 33  1  0
 32 52  1  0
 33 53  1  0
M  END
>  <conformerSource>
pubchem

$$$$
